Version 4
SHEET 1 1320 680
WIRE 176 64 144 64
WIRE 144 96 144 64
WIRE 160 96 144 96
WIRE -112 112 -128 112
WIRE -16 112 -112 112
WIRE 80 112 64 112
WIRE 128 112 80 112
WIRE 320 128 192 128
WIRE 352 128 320 128
WIRE 128 144 96 144
WIRE 160 176 160 160
WIRE -16 272 -64 272
WIRE 80 272 80 112
WIRE 80 272 64 272
WIRE 176 272 80 272
WIRE 320 272 320 128
WIRE 320 272 256 272
WIRE -32 368 -128 368
WIRE 64 368 48 368
WIRE 208 368 64 368
WIRE 304 368 288 368
WIRE 176 384 144 384
WIRE 144 400 144 384
WIRE 64 416 64 368
WIRE 112 416 64 416
WIRE 304 432 304 368
WIRE 304 432 176 432
WIRE 112 448 48 448
WIRE 448 464 448 416
WIRE 560 464 560 416
WIRE 688 464 688 416
WIRE 960 464 960 416
WIRE 144 496 144 464
WIRE -64 560 -64 272
WIRE 304 560 304 432
WIRE 304 560 -64 560
WIRE 448 592 448 544
WIRE 560 592 560 544
WIRE 688 592 688 544
WIRE 960 592 960 544
FLAG 176 384 VDD
FLAG 144 496 0
FLAG 160 176 0
FLAG -112 112 Vinp
FLAG -128 368 Vinn
FLAG 176 64 VDD
FLAG 352 128 Vout
FLAG 448 592 0
FLAG 448 416 VDD
FLAG 560 592 0
FLAG 96 144 VMID
FLAG 48 448 VMID
FLAG 560 416 VMID
FLAG 688 592 0
FLAG 688 416 Vinp
FLAG 960 592 0
FLAG 960 416 Vinn
SYMBOL res 304 352 R90
WINDOW 0 0 56 VBottom 2
WINDOW 3 32 56 VTop 2
SYMATTR InstName R1
SYMATTR Value 1k
SYMBOL res 64 352 R90
WINDOW 0 0 56 VBottom 2
WINDOW 3 32 56 VTop 2
SYMATTR InstName R2
SYMATTR Value 1k
SYMBOL res 80 256 R90
WINDOW 0 0 56 VBottom 2
WINDOW 3 32 56 VTop 2
SYMATTR InstName R3
SYMATTR Value 1k
SYMBOL res 80 96 R90
WINDOW 0 0 56 VBottom 2
WINDOW 3 32 56 VTop 2
SYMATTR InstName R4
SYMATTR Value 1k
SYMBOL res 272 256 R90
WINDOW 0 0 56 VBottom 2
WINDOW 3 32 56 VTop 2
SYMATTR InstName R5
SYMATTR Value 330
SYMBOL voltage 448 448 R0
WINDOW 123 0 0 Left 0
WINDOW 39 0 0 Left 0
SYMATTR InstName V1
SYMATTR Value 3.3
SYMBOL voltage 560 448 R0
WINDOW 123 0 0 Left 0
WINDOW 39 0 0 Left 0
SYMATTR InstName V2
SYMATTR Value 600m
SYMBOL voltage 688 448 R0
WINDOW 123 0 0 Left 0
WINDOW 39 0 0 Left 0
SYMATTR InstName V3
SYMATTR Value SINE(1.6 300m 100)
SYMBOL voltage 960 448 R0
WINDOW 123 0 0 Left 0
WINDOW 39 0 0 Left 0
SYMATTR InstName V4
SYMATTR Value SINE(1.6 300m 100 0 0 180)
SYMBOL Opamps\\AD824 144 368 R0
SYMATTR InstName U3
SYMBOL Opamps\\AD824 160 64 R0
SYMATTR InstName U1
TEXT -196 616 Left 2 !.tran .05
